NU6094_2A6_1H1Q_chain_A
     RDKit          3D

 45 48  0  0  0  0  0  0  0  0999 V2000
    7.8210   43.7020   49.3990 C   0  0  0  0  0  0  0  0  0  0  0  0
   10.7390   46.1550   51.6470 C   0  0  0  0  0  0  0  0  0  0  0  0
    5.1160   45.2740   51.6170 C   0  0  0  0  0  0  0  0  0  0  0  0
    4.1070   45.7240   52.7030 C   0  0  0  0  0  0  0  0  0  0  0  0
    2.7660   45.9860   51.9860 C   0  0  0  0  0  0  0  0  0  0  0  0
    1.5620   46.0860   52.9390 C   0  0  0  0  0  0  0  0  0  0  0  0
    1.4480   44.9690   53.9870 C   0  0  0  0  0  0  0  0  0  0  0  0
    2.7870   44.7400   54.7250 C   0  0  0  0  0  0  0  0  0  0  0  0
    4.0090   44.6090   53.7920 C   0  0  0  0  0  0  0  0  0  0  0  0
    4.6670   40.9170   47.4030 C   0  0  0  0  0  0  0  0  0  0  0  0
    4.0590   40.6480   48.6330 C   0  0  0  0  0  0  0  0  0  0  0  0
    4.6450   41.0930   49.8150 C   0  0  0  0  0  0  0  0  0  0  0  0
    5.8520   41.7890   49.8080 C   0  0  0  0  0  0  0  0  0  0  0  0
    6.8700   44.4890   50.1810 N   0  0  0  0  0  0  0  0  0  0  0  0
    7.2370   45.3850   51.0370 C   0  0  0  0  0  0  0  0  0  0  0  0
    6.3200   46.0740   51.7360 O   0  0  0  0  0  0  0  0  0  0  0  0
    8.6590   45.6250   51.1990 C   0  0  0  0  0  0  0  0  0  0  0  0
    9.5490   46.4520   51.9630 N   0  0  0  0  0  0  0  0  0  0  0  0
   10.7730   45.2130   50.7360 N   0  0  0  0  0  0  0  0  0  0  0  0
    9.5340   44.9120   50.4780 C   0  0  0  0  0  0  0  0  0  0  0  0
    9.0610   43.9200   49.5710 N   0  0  0  0  0  0  0  0  0  0  0  0
    7.6000   42.7620   48.5320 N   0  0  0  0  0  0  0  0  0  0  0  0
    6.4450   42.0610   48.5810 C   0  0  0  0  0  0  0  0  0  0  0  0
    5.8550   41.6320   47.3960 C   0  0  0  0  0  0  0  0  0  0  0  0
   11.6340   46.6290   52.0830 H   0  0  0  0  0  0  0  0  0  0  0  0
    4.6810   45.3100   50.5910 H   0  0  0  0  0  0  0  0  0  0  0  0
    5.3260   44.1800   51.6590 H   0  0  0  0  0  0  0  0  0  0  0  0
    4.4660   46.6690   53.1730 H   0  0  0  0  0  0  0  0  0  0  0  0
    2.5830   45.2150   51.2010 H   0  0  0  0  0  0  0  0  0  0  0  0
    2.8350   46.8950   51.3430 H   0  0  0  0  0  0  0  0  0  0  0  0
    0.6170   46.1550   52.3520 H   0  0  0  0  0  0  0  0  0  0  0  0
    1.5560   47.0810   53.4420 H   0  0  0  0  0  0  0  0  0  0  0  0
    1.0660   44.0240   53.5350 H   0  0  0  0  0  0  0  0  0  0  0  0
    0.6170   45.1670   54.7040 H   0  0  0  0  0  0  0  0  0  0  0  0
    2.9580   45.5410   55.4810 H   0  0  0  0  0  0  0  0  0  0  0  0
    2.7140   43.8550   55.3990 H   0  0  0  0  0  0  0  0  0  0  0  0
    4.9510   44.5620   54.3870 H   0  0  0  0  0  0  0  0  0  0  0  0
    4.0320   43.5990   53.3190 H   0  0  0  0  0  0  0  0  0  0  0  0
    4.2120   40.5690   46.4600 H   0  0  0  0  0  0  0  0  0  0  0  0
    3.1130   40.0820   48.6670 H   0  0  0  0  0  0  0  0  0  0  0  0
    4.1440   40.8900   50.7760 H   0  0  0  0  0  0  0  0  0  0  0  0
    6.3240   42.1150   50.7500 H   0  0  0  0  0  0  0  0  0  0  0  0
    9.2710   47.1580   52.6440 H   0  0  0  0  0  0  0  0  0  0  0  0
    8.2950   42.5530   47.8160 H   0  0  0  0  0  0  0  0  0  0  0  0
    6.3410   41.8650   46.4340 H   0  0  0  0  0  0  0  0  0  0  0  0
  1 14  2  0
  1 21  1  0
  1 22  1  0
  2 18  1  0
  2 19  2  0
  2 25  1  0
  3  4  1  0
  3 16  1  0
  3 26  1  0
  3 27  1  0
  4  5  1  0
  4  9  1  0
  4 28  1  0
  5  6  1  0
  5 29  1  0
  5 30  1  0
  6  7  1  0
  6 31  1  0
  6 32  1  0
  7  8  1  0
  7 33  1  0
  7 34  1  0
  8  9  1  0
  8 35  1  0
  8 36  1  0
  9 37  1  0
  9 38  1  0
 10 11  2  0
 10 24  1  0
 10 39  1  0
 11 12  1  0
 11 40  1  0
 12 13  2  0
 12 41  1  0
 13 23  1  0
 13 42  1  0
 14 15  1  0
 15 16  1  0
 15 17  2  0
 17 18  1  0
 17 20  1  0
 18 43  1  0
 19 20  1  0
 20 21  2  0
 22 23  1  0
 22 44  1  0
 23 24  2  0
 24 45  1  0
M  END
>  <pose_source>  (1) 
experimental coordinates from PDB 1H1Q ligand 2A6 chain A

$$$$
