2A6
  CCTOOLS-0919241037

 45 48  0  0  0  0  0  0  0  0999 V2000
   -0.2480   -0.1580    1.3950 C   0  0  0  0  0
    4.1390   -0.1440    0.8750 C   0  0  0  0  0
   -0.5000   -0.3290   -2.3710 C   0  0  0  0  0
   -0.5860   -0.3980   -3.8970 C   0  0  0  0  0
   -2.0550   -0.4290   -4.3240 C   0  0  0  0  0
   -2.1410   -0.4980   -5.8500 C   0  0  0  0  0
   -1.4610    0.7300   -6.4550 C   0  0  0  0  0
    0.0070    0.7620   -6.0280 C   0  0  0  0  0
    0.0930    0.8310   -4.5020 C   0  0  0  0  0
   -2.4920   -0.4050    5.5860 C   0  0  0  0  0
   -1.5450    0.3960    6.1970 C   0  0  0  0  0
   -0.5710    1.0200    5.4400 C   0  0  0  0  0
   -0.5400    0.8450    4.0700 C   0  0  0  0  0
   -0.2510   -0.2180    0.0690 N   0  0  0  0  0
    0.8840   -0.2390   -0.6180 C   0  0  0  0  0
    0.8710   -0.2990   -1.9720 O   0  0  0  0  0
    2.0890   -0.2030    0.0790 C   0  0  0  0  0
    3.4250   -0.2020   -0.2710 N   0  0  0  0  0
    3.3360   -0.1050    1.9020 N   0  0  0  0  0
    2.0570   -0.1350    1.4830 C   0  0  0  0  0
    0.8700   -0.1170    2.0970 N   0  0  0  0  0
   -1.4610   -0.1390    2.0670 N   0  0  0  0  0
   -1.4890    0.0400    3.4530 C   0  0  0  0  0
   -2.4700   -0.5800    4.2160 C   0  0  0  0  0
    5.2170   -0.1320    0.9320 H   0  0  0  0  0
   -1.0010    0.5730   -2.0190 H   0  0  0  0  0
   -0.9860   -1.2040   -1.9400 H   0  0  0  0  0
   -0.0860   -1.3000   -4.2480 H   0  0  0  0  0
   -2.5550    0.4720   -3.9720 H   0  0  0  0  0
   -2.5400   -1.3050   -3.8930 H   0  0  0  0  0
   -3.1880   -0.5210   -6.1540 H   0  0  0  0  0
   -1.6410   -1.4010   -6.2020 H   0  0  0  0  0
   -1.5220    0.6810   -7.5420 H   0  0  0  0  0
   -1.9610    1.6330   -6.1030 H   0  0  0  0  0
    0.5070   -0.1400   -6.3800 H   0  0  0  0  0
    0.4920    1.6370   -6.4590 H   0  0  0  0  0
   -0.4060    1.7330   -4.1500 H   0  0  0  0  0
    1.1400    0.8530   -4.1980 H   0  0  0  0  0
   -3.2510   -0.8920    6.1800 H   0  0  0  0  0
   -1.5670    0.5350    7.2680 H   0  0  0  0  0
    0.1660    1.6450    5.9200 H   0  0  0  0  0
    0.2210    1.3320    3.4800 H   0  0  0  0  0
    3.7840   -0.2390   -1.1710 H   0  0  0  0  0
   -2.2900   -0.2500    1.5760 H   0  0  0  0  0
   -3.2100   -1.2070    3.7390 H   0  0  0  0  0
  1 14  2  0  0  0
  1 21  1  0  0  0
  1 22  1  0  0  0
  2 18  1  0  0  0
  2 19  2  0  0  0
  2 25  1  0  0  0
  3  4  1  0  0  0
  3 16  1  0  0  0
  3 26  1  0  0  0
  3 27  1  0  0  0
  4  5  1  0  0  0
  4  9  1  0  0  0
  4 28  1  0  0  0
  5  6  1  0  0  0
  5 29  1  0  0  0
  5 30  1  0  0  0
  6  7  1  0  0  0
  6 31  1  0  0  0
  6 32  1  0  0  0
  7  8  1  0  0  0
  7 33  1  0  0  0
  7 34  1  0  0  0
  8  9  1  0  0  0
  8 35  1  0  0  0
  8 36  1  0  0  0
  9 37  1  0  0  0
  9 38  1  0  0  0
 10 11  2  0  0  0
 10 24  1  0  0  0
 10 39  1  0  0  0
 11 12  1  0  0  0
 11 40  1  0  0  0
 12 13  2  0  0  0
 12 41  1  0  0  0
 13 23  1  0  0  0
 13 42  1  0  0  0
 14 15  1  0  0  0
 15 16  1  0  0  0
 15 17  2  0  0  0
 17 18  1  0  0  0
 17 20  1  0  0  0
 18 43  1  0  0  0
 19 20  1  0  0  0
 20 21  2  0  0  0
 22 23  1  0  0  0
 22 44  1  0  0  0
 23 24  2  0  0  0
 24 45  1  0  0  0
M  END
$$$$
